Version 4
SHEET 1 1916 1188
WIRE 80 -272 -352 -272
WIRE 208 -272 80 -272
WIRE 304 -272 208 -272
WIRE 304 -256 304 -272
WIRE 320 -256 304 -256
WIRE -352 -240 -352 -272
WIRE -352 -224 -352 -240
WIRE 320 -224 320 -256
WIRE 272 -144 224 -144
WIRE 80 -128 80 -272
WIRE 160 -48 128 -48
WIRE 320 -16 320 -128
WIRE 320 -16 304 -16
WIRE 464 -16 320 -16
WIRE 80 0 80 -32
WIRE 160 0 160 -48
WIRE 160 0 80 0
WIRE 224 0 224 -144
WIRE 224 0 160 0
WIRE 464 0 464 -16
WIRE 80 32 80 0
WIRE 304 32 304 -16
WIRE 304 48 304 32
WIRE -352 64 -352 -160
WIRE -208 64 -352 64
WIRE 16 96 -80 96
WIRE 32 96 16 96
WIRE -352 112 -352 64
WIRE 32 112 32 96
WIRE 400 112 352 112
WIRE 448 112 400 112
WIRE -352 128 -352 112
WIRE 80 144 80 128
WIRE 192 144 80 144
WIRE 304 144 304 128
WIRE 304 144 192 144
WIRE -208 192 -208 64
WIRE -208 192 -304 192
WIRE -112 192 -208 192
WIRE -112 224 -112 192
WIRE 144 224 -112 224
FLAG 192 240 0
FLAG 80 80 0
FLAG -80 176 0
FLAG 448 192 0
FLAG -560 -128 0
FLAG 192 192 0
FLAG 464 48 0
FLAG 464 -16 vo
FLAG 304 80 0
FLAG -352 160 0
FLAG -352 208 0
FLAG 16 96 Vin1
IOPIN 16 96 In
FLAG 400 112 Vin2
IOPIN 400 112 In
FLAG -560 -208 vdd
IOPIN -560 -208 In
FLAG 208 -272 vdd
IOPIN 208 -272 In
FLAG 80 -80 vdd
IOPIN 80 -80 In
FLAG 320 -176 vdd
IOPIN 320 -176 In
SYMBOL nmos4 144 144 R0
SYMATTR InstName m0
SYMATTR Value2 l=180n w=5u
SYMATTR Value CMOSN
SYMBOL nmos4 32 32 R0
SYMATTR InstName m1
SYMATTR Value CMOSN
SYMATTR Value2 l=180n w=3u
SYMBOL voltage -80 80 R0
WINDOW 123 24 124 Left 2
WINDOW 39 0 0 Left 0
SYMATTR Value2 AC AC 1
SYMATTR InstName vd
SYMATTR Value SINE(0.8 0.8m 1k)
SYMBOL voltage 448 96 R0
WINDOW 123 24 124 Left 2
WINDOW 39 0 0 Left 0
SYMATTR Value2 AC AC 1
SYMATTR InstName -vd
SYMATTR Value SINE(0.8 -0.8m 1k)
SYMBOL voltage -560 -224 R0
WINDOW 123 0 0 Left 0
WINDOW 39 0 0 Left 0
SYMATTR InstName vdd
SYMATTR Value 1.8
SYMBOL cap 448 -16 R0
SYMATTR InstName C1
SYMATTR Value 0.5p
SYMBOL pmos4 272 -224 R0
SYMATTR InstName m4
SYMATTR Value CMOSP
SYMATTR Value2 l=180n w=8u
SYMBOL nmos4 352 32 M0
SYMATTR InstName M2
SYMATTR Value2 l=180n w=3u
SYMATTR Value CMOSN
SYMBOL pmos4 128 -128 M0
SYMATTR InstName M3
SYMATTR Value2 l=180n w=8u
SYMATTR Value CMOSP
SYMBOL current -352 -240 R0
WINDOW 123 0 0 Left 0
WINDOW 39 0 0 Left 0
SYMATTR InstName I1
SYMATTR Value 50µ
SYMBOL nmos4 -304 112 M0
SYMATTR InstName M5
SYMATTR Value CMOSN
SYMATTR Value2 l=180n w=5u
TEXT 768 -1000 Left 2 !.MODEL CMOSN NMOS (                                LEVEL   = 49\n+VERSION = 3.1            TNOM    = 27             TOX     = 4.1E-9\n+XJ      = 1E-7           NCH     = 2.3549E17      VTH0    = 0.3662473\n+K1      = 0.5864999      K2      = 1.127266E-3    K3      = 1E-3\n+K3B     = 0.0294061      W0      = 1E-7           NLX     = 1.630684E-7\n+DVT0W   = 0              DVT1W   = 0              DVT2W   = 0\n+DVT0    = 1.2064649      DVT1    = 0.4215486      DVT2    = 0.0197749\n+U0      = 273.8094484    UA      = -1.40499E-9    UB      = 2.408323E-18\n+UC      = 6.504826E-11   VSAT    = 1.355009E5     A0      = 2\n+AGS     = 0.4449958      B0      = 1.901075E-7    B1      = 4.99995E-6\n+KETA    = -0.0164863     A1      = 3.868769E-4    A2      = 0.4640272\n+RDSW    = 123.3376355    PRWG    = 0.5            PRWB    = -0.197728\n+WR      = 1              WINT    = 0              LINT    = 1.690044E-8\n+XL      = 0              XW      = -1E-8          DWG     = -4.728719E-9\n+DWB     = -2.452411E-9   VOFF    = -0.0948017     NFACTOR = 2.1860065\n+CIT     = 0              CDSC    = 2.4E-4         CDSCD   = 0\n+CDSCB   = 0              ETA0    = 2.230928E-3    ETAB    = 6.028975E-5\n+DSUB    = 0.0145467      PCLM    = 1.3822069      PDIBLC1 = 0.1762787\n+PDIBLC2 = 1.66653E-3     PDIBLCB = -0.1           DROUT   = 0.7694691\n+PSCBE1  = 8.91287E9      PSCBE2  = 7.349607E-9    PVAG    = 1.685917E-3\n+DELTA   = 0.01           RSH     = 6.7            MOBMOD  = 1\n+PRT     = 0              UTE     = -1.5           KT1     = -0.11\n+KT1L    = 0              KT2     = 0.022          UA1     = 4.31E-9\n+UB1     = -7.61E-18      UC1     = -5.6E-11       AT      = 3.3E4\n+WL      = 0              WLN     = 1              WW      = 0\n+WWN     = 1              WWL     = 0              LL      = 0\n+LLN     = 1              LW      = 0              LWN     = 1\n+LWL     = 0              CAPMOD  = 2              XPART   = 0.5\n+CGDO    = 8.23E-10       CGSO    = 8.23E-10       CGBO    = 1E-12\n+CJ      = 9.466429E-4    PB      = 0.8            MJ      = 0.3820266\n+CJSW    = 2.608154E-10   PBSW    = 0.8            MJSW    = 0.102322\n+CJSWG   = 3.3E-10        PBSWG   = 0.8            MJSWG   = 0.102322\n+CF      = 0              PVTH0   = -2.199373E-3   PRDSW   = -0.9368961\n+PK2     = 1.593254E-3    WKETA   = -2.880976E-3   LKETA   = 7.165078E-3\n+PU0     = 6.777519       PUA     = 5.505418E-12   PUB     = 8.84133E-25\n+PVSAT   = 2.006286E3     PETA0   = 1.003159E-4    PKETA   = -6.759277E-3\n+NOIMOD=2.0E+00                 NOIA=1.3182567385564E+19\n+NOIB=144543.977074592 NOIC=-1.24515784572817E-12               EF=0.92 EM=41000000 )
TEXT 776 136 Left 2 !.MODEL CMOSP PMOS (                                LEVEL   = 49\n+VERSION = 3.1            TNOM    = 27             TOX     = 4.1E-9\n+XJ      = 1E-7           NCH     = 4.1589E17      VTH0    = -0.3906012\n+K1      = 0.5341312      K2      = 0.0395326      K3      = 0\n+K3B     = 7.4916211      W0      = 1E-6           NLX     = 1.194072E-7\n+DVT0W   = 0              DVT1W   = 0              DVT2W   = 0\n+DVT0    = 0.5060555      DVT1    = 0.2423835      DVT2    = 0.1\n+U0      = 115.6894042    UA      = 1.573746E-9    UB      = 1.874308E-21\n+UC      = -1E-10         VSAT    = 1.130982E5     A0      = 1.9976555\n+AGS     = 0.4186945      B0      = 1.949178E-7    B1      = 6.422908E-7\n+KETA    = 0.0166345      A1      = 0.4749146      A2      = 0.300003\n+RDSW    = 198.321294     PRWG    = 0.5            PRWB    = -0.4986647\n+WR      = 1              WINT    = 0              LINT    = 2.94454E-8\n+XL      = 0              XW      = -1E-8          DWG     = -2.798724E-8\n+DWB     = -4.83797E-10   VOFF    = -0.095236      NFACTOR = 2\n+CIT     = 0              CDSC    = 2.4E-4         CDSCD   = 0\n+CDSCB   = 0              ETA0    = 1.035504E-3    ETAB    = -4.358398E-4\n+DSUB    = 1.816555E-3    PCLM    = 1.3299898      PDIBLC1 = 1.766563E-3\n+PDIBLC2 = 7.728395E-7    PDIBLCB = -1E-3          DROUT   = 1.011891E-3\n+PSCBE1  = 4.872184E10    PSCBE2  = 5E-10          PVAG    = 0.0209921\n+DELTA   = 0.01           RSH     = 7.7            MOBMOD  = 1\n+PRT     = 0              UTE     = -1.5           KT1     = -0.11\n+KT1L    = 0              KT2     = 0.022          UA1     = 4.31E-9\n+UB1     = -7.61E-18      UC1     = -5.6E-11       AT      = 3.3E4\n+WL      = 0              WLN     = 1              WW      = 0\n+WWN     = 1              WWL     = 0              LL      = 0\n+LLN     = 1              LW      = 0              LWN     = 1\n+LWL     = 0              CAPMOD  = 2              XPART   = 0.5\n+CGDO    = 6.35E-10       CGSO    = 6.35E-10       CGBO    = 1E-12\n+CJ      = 1.144521E-3    PB      = 0.8468686      MJ      = 0.4099522\n+CJSW    = 2.490749E-10   PBSW    = 0.8769118      MJSW    = 0.3478565\n+CJSWG   = 4.22E-10       PBSWG   = 0.8769118      MJSWG   = 0.3478565\n+CF      = 0              PVTH0   = 2.302018E-3    PRDSW   = 9.0575312\n+PK2     = 1.821914E-3    WKETA   = 0.0222457      LKETA   = -1.495872E-3\n+PU0     = -1.5580645     PUA     = -6.36889E-11   PUB     = 1E-21\n+PVSAT   = 49.8420442     PETA0   = 2.827793E-5    PKETA   = -2.536564E-3 \n+ NOIMOD=2.0E+00                                NOIA=3.57456993317604E+18                       NOIB=2500\n+ NOIC=2.61260020285845E-11     EF=1.1388                                                       EM=41000000 )
TEXT -328 -344 Left 2 !.tran 0 10m 0 0.001
TEXT -328 -304 Left 2 !.op 0 10m 0 0.001
